************************************************************************
*Heading
3D cyclic deformation of a curved bar
************************************************************************
**
** This input file is for 3D cyclic deformation of a curved bar. It is 
**  intended as a test of a UMAT for inhomogeneous deformation.
**
** Shihong Li, 2015
************************************************************************
**
** Note: Abaqus has no built-in units. It is the
** user's responsibility to use compatible units.
**
**       Units used in this problem, SI:
**                  Length               --- meters - m
**                  Time                 --- seconds - s
**                  Mass                 --- kilograms - kg
**                  Force                --- Newton - N
**                  Stress               --- Pascal - Pa = N/(m)^2 
**                  Energy               --- Joule - J = N*m
**                  Angle                --- radians
**
************************************************************************
**			Parameters
************************************************************************
*Parameter
**
** pressure (Pa)
Pr =  1.0E9

************************************************************************
**			Model definition
************************************************************************
**
** Nodes
**
*Node, nset=nall
      1,           0.,           0.,        0.125
      2, 0.0883883461,           0., 0.0883883461
      3,        0.125,           0.,           0.
      4, -0.100000001,           0.,        0.125
      5,           0., -0.0092721805,  0.123216949
      6,           0., -0.0163031593,  0.118952759
      7,           0., -0.0207097214,  0.114003837
      8,           0., -0.0235981178,  0.108254015
      9,           0., -0.0249783248,  0.101040825
     10,           0., -0.0241666362, 0.0935989246
     11,           0., -0.0215559453, 0.0873374045
     12,           0., -0.0181134399, 0.0827691182
     13,           0., -0.0137156378, 0.0790982917
     14,           0., -0.00757877761, 0.0761764348
     15,           0.,  -2.24249779e-05, 0.0750000104
     16,           0., 0.00760137569, 0.0761836395
     17,           0., 0.0138506023, 0.0791874826
     18,           0., 0.0182579309, 0.0829222947
     19,           0.,  0.021617474, 0.0874427408
     20,           0., 0.0241423305, 0.0935078636
** ... 2732 like lines cut
**
** Elements
**
*Element, type=C3D8H, elset=elall
  1,   90,   91,  107,  106, 1116, 1117, 1133, 1132
  2,   91,   92,  108,  107, 1117, 1118, 1134, 1133
  3,   92,   93,  109,  108, 1118, 1119, 1135, 1134
  4,   93,   89,   94,  109, 1119, 1115, 1120, 1135
  5,  106,  107,  110,  105, 1132, 1133, 1136, 1131
  6,  107,  108,  111,  110, 1133, 1134, 1137, 1136
  7,  108,  109,  112,  111, 1134, 1135, 1138, 1137
  8,  109,   94,   95,  112, 1135, 1120, 1121, 1138
  9,  105,  110,  104,  101, 1131, 1136, 1130, 1127
 10,  110,  111,  103,  104, 1136, 1137, 1129, 1130
 11,  111,  112,  102,  103, 1137, 1138, 1128, 1129
 12,  112,   95,   96,  102, 1138, 1121, 1122, 1128
 13,   96,    8,    9,  102, 1122,  177,  178, 1128
 14,  102,    9,   10,  103, 1128,  178,  179, 1129
 15,  103,   10,   11,  104, 1129,  179,  180, 1130
 16,  104,   11,   12,  101, 1130,  180,  181, 1127
 17,   12,   13,  105,  101,  181,  182, 1131, 1127
 18,   13,   14,  106,  105,  182,  183, 1132, 1131
 19,   14,   15,   90,  106,  183,  184, 1116, 1132
 20,    7,    8,   96,  113,  176,  177, 1122, 1139
** ... 2164 like lines cut
**
** Sets
**
*Nset, nset=MovedFace
   4,  68,  69,  70,  71,  72,  73,  74,  75,  76,  77,  78,  79,  80,  81,  82
  83,  84,  85,  86,  87,  88, 787, 788, 789, 790, 791, 792, 793, 794, 795, 796
 797, 798, 799, 800, 801, 802, 803, 804, 805, 806, 807, 808, 809, 810, 811, 812
 813, 814, 815, 816, 817, 818, 819, 820, 821, 822, 823, 824, 825, 826, 827, 828
*Nset, nset=FixedFace
   3,  47,  48,  49,  50,  51,  52,  53,  54,  55,  56,  57,  58,  59,  60,  61
  62,  63,  64,  65,  66,  67, 459, 460, 461, 462, 463, 464, 465, 466, 467, 468
 469, 470, 471, 472, 473, 474, 475, 476, 477, 478, 479, 480, 481, 482, 483, 484
 485, 486, 487, 488, 489, 490, 491, 492, 493, 494, 495, 496, 497, 498, 499, 500
*******************************************************************
**  Specification Of Material Properties
*******************************************************************
*SOLID SECTION,ELSET=ELALL,MATERIAL=MAT, controls=sec_con
*Section controls, name=sec_con, hourglass=enhanced
*MATERIAL, NAME=MAT
******************
**       CONTENTS OF PROPS VECTOR (*USER MATERIAL, CONSTANTS =7) :
**       -----------------------------------------------------------
**       PROPS(I)
**       --------
**  1   E        ---  young's modulus
**  2   xnu      ---  poisson ratio
**  3   Y        ---  yield limit
**  4   e0       ---  material props
**  5   n        ---  hardening modulus
**  6   edot0    ---  material props
**  7   m        ---  strain rate sensitivity
**
**       STATE VARIABLES (*DEPVAR 2) :
**       ------------------------------
**      STATEV(1)   = Ee          -- EQUIV. SHEAR PLASTIC STRAIN  
**     STATEV(2)   = dEe         -- EQUIV. SHEAR PLASTIC STRAIN RATE
**********************************************************************
**************************
*USER MATERIAL,CONSTANTS=7, type=mechanical
 1000.0, 0.3, 10., 0.1, 3., 0.1d0, 10.
**
**
*DEPVAR
2
*DENSITY
8000.0
************************************************************************
**                   Boundary conditions
************************************************************************
**
** Initial BCS
**
*Boundary
FixedFace,1,3
MovedFace,1,1
MovedFace,3,3
**
************************************************************************
**                   Amplitude definition
************************************************************************
*Amplitude, name=Amp-1, definition=periodic
1, 0.62831853, 0., 0.
0., 0.02
************************************************************************
**             		Step definition
************************************************************************
*Step, name=Load, inc=50000,  nlgeom=yes
*Static
1.d-2,30.0,1.d-6,0.1
**
*Boundary, amplitude=Amp-1
MovedFace,2,2,1.
****************
****************  OUTPUTS
****************
****************  Field output
****************
*Output, field, number interval=300
*node output
u,rf
*element output
s,e,sdv
****************
****************  History output
****************
*Output, history
*node output, nset=MovedFace
rf2,u2
*end step
************************************************************************